@<TRIPOS>MOLECULE
a
 65 67 0 0 0
SMALL
GASTEIGER

@<TRIPOS>ATOM
      1 C           6.1835   -2.0256   -0.0518 C.3     1  UNL1       -0.0638
      2 C           4.7644   -1.6591    0.3364 C.3     1  UNL1       -0.0390
      3 C           4.7743   -0.6226    1.4524 C.3     1  UNL1        0.0258
      4 C           3.4350   -0.5383    2.1611 C.3     1  UNL1       -0.0481
      5 N           5.2680    0.6979    1.0363 N.3     1  UNL1       -0.1872
      6 S           4.4211    1.3695   -0.3356 S.O2    1  UNL1        0.0587
      7 O           4.7333    0.5720   -1.5714 O.2     1  UNL1       -0.1530
      8 O           4.9003    2.7767   -0.5547 O.2     1  UNL1       -0.1530
      9 C           2.6835    1.4086   -0.0839 C.ar    1  UNL1        0.1073
     10 C           2.1154    2.4078    0.7395 C.ar    1  UNL1       -0.0332
     11 C           0.7274    2.4500    0.9644 C.ar    1  UNL1       -0.0323
     12 C          -0.0521    1.4738    0.3502 C.ar    1  UNL1        0.0910
     13 N          -1.3873    1.3276    0.4272 N.ar    1  UNL1       -0.2142
     14 C          -1.6152    0.2346   -0.3491 C.ar    1  UNL1        0.2012
     15 N          -2.9168   -0.3246   -0.5763 N.pl3   1  UNL1       -0.2849
     16 C          -4.1579    0.1435   -0.0331 C.ar    1  UNL1        0.0335
     17 C          -5.3368   -0.5305   -0.3708 C.ar    1  UNL1       -0.0402
     18 C          -6.5667   -0.1049    0.1402 C.ar    1  UNL1       -0.0571
     19 C          -6.6241    0.9999    0.9940 C.ar    1  UNL1       -0.0503
     20 C          -7.9311    1.4525    1.5372 C.3     1  UNL1       -0.0397
     21 C          -5.4518    1.6786    1.3369 C.ar    1  UNL1       -0.0571
     22 C          -4.2229    1.2519    0.8253 C.ar    1  UNL1       -0.0402
     23 N          -0.4906   -0.2915   -0.8952 N.ar    1  UNL1       -0.3082
     24 C          -0.4142   -1.4852   -1.7460 C.3     1  UNL1        0.0397
     25 C           0.4216   -1.2246   -2.9967 C.3     1  UNL1       -0.0436
     26 C          -0.0007   -2.7578   -0.9745 C.3     1  UNL1       -0.0171
     27 C          -0.1633   -3.9735   -1.8688 C.3     1  UNL1       -0.0582
     28 C           1.4424   -2.6939   -0.5046 C.3     1  UNL1       -0.0582
     29 C          -0.8957   -2.9557    0.2357 C.3     1  UNL1       -0.0582
     30 C           0.4935    0.5047   -0.4420 C.ar    1  UNL1        0.0722
     31 C           1.8637    0.4381   -0.6902 C.ar    1  UNL1       -0.0096
     32 H           6.1621   -2.7536   -0.8357 H       1  UNL1        0.0230
     33 H           6.6922   -2.4311    0.7977 H       1  UNL1        0.0230
     34 H           6.6976   -1.1508   -0.3914 H       1  UNL1        0.0230
     35 H           4.2526   -2.5362    0.6735 H       1  UNL1        0.0278
     36 H           4.2646   -1.2489   -0.5161 H       1  UNL1        0.0278
     37 H           5.4910   -0.9769    2.1635 H       1  UNL1        0.0474
     38 H           2.6912   -0.1860    1.4773 H       1  UNL1        0.0245
     39 H           3.5101    0.1387    2.9863 H       1  UNL1        0.0245
     40 H           3.1594   -1.5081    2.5194 H       1  UNL1        0.0245
     41 H           6.2547    0.6099    0.7931 H       1  UNL1        0.1483
     42 H           2.7256    3.1138    1.1803 H       1  UNL1        0.0638
     43 H           0.3033    3.1768    1.5618 H       1  UNL1        0.0640
     44 H          -2.9622   -1.1113   -1.1664 H       1  UNL1        0.1550
     45 H          -5.2982   -1.3468   -1.0010 H       1  UNL1        0.0636
     46 H          -7.4322   -0.6067   -0.1132 H       1  UNL1        0.0621
     47 H          -8.7096    0.8177    1.1686 H       1  UNL1        0.0278
     48 H          -8.1161    2.4601    1.2282 H       1  UNL1        0.0278
     49 H          -7.9087    1.4056    2.6059 H       1  UNL1        0.0278
     50 H          -5.4932    2.4945    1.9675 H       1  UNL1        0.0621
     51 H          -3.3585    1.7548    1.0803 H       1  UNL1        0.0636
     52 H          -1.4077   -1.6935   -2.0843 H       1  UNL1        0.0531
     53 H           1.4307   -1.0097   -2.7130 H       1  UNL1        0.0250
     54 H           0.0156   -0.3903   -3.5296 H       1  UNL1        0.0250
     55 H           0.4044   -2.0912   -3.6241 H       1  UNL1        0.0250
     56 H           0.4566   -3.8652   -2.7342 H       1  UNL1        0.0236
     57 H          -1.1861   -4.0596   -2.1712 H       1  UNL1        0.0236
     58 H           0.1249   -4.8527   -1.3314 H       1  UNL1        0.0236
     59 H           2.0862   -2.5544   -1.3478 H       1  UNL1        0.0236
     60 H           1.6968   -3.6073   -0.0088 H       1  UNL1        0.0236
     61 H           1.5607   -1.8749    0.1738 H       1  UNL1        0.0236
     62 H          -1.9170   -3.0027   -0.0799 H       1  UNL1        0.0236
     63 H          -0.7685   -2.1357    0.9113 H       1  UNL1        0.0236
     64 H          -0.6324   -3.8681    0.7287 H       1  UNL1        0.0236
     65 H           2.2624   -0.2959   -1.2963 H       1  UNL1        0.0658
@<TRIPOS>BOND
     1     1     2    1
     2     2     3    1
     3     3     4    1
     4     3     5    1
     5     5     6    1
     6     6     7    2
     7     6     8    2
     8     6     9    1
     9     9    10   ar
    10    10    11   ar
    11    11    12   ar
    12    12    13   ar
    13    13    14   ar
    14    14    15    1
    15    15    16    1
    16    16    17   ar
    17    17    18   ar
    18    18    19   ar
    19    19    20    1
    20    19    21   ar
    21    21    22   ar
    22    14    23   ar
    23    23    24    1
    24    24    25    1
    25    24    26    1
    26    26    27    1
    27    26    28    1
    28    26    29    1
    29    23    30   ar
    30    30    31   ar
    31    31     9   ar
    32    30    12   ar
    33    22    16   ar
    34     1    32    1
    35     1    33    1
    36     1    34    1
    37     2    35    1
    38     2    36    1
    39     3    37    1
    40     4    38    1
    41     4    39    1
    42     4    40    1
    43     5    41    1
    44    10    42    1
    45    11    43    1
    46    15    44    1
    47    17    45    1
    48    18    46    1
    49    20    47    1
    50    20    48    1
    51    20    49    1
    52    21    50    1
    53    22    51    1
    54    24    52    1
    55    25    53    1
    56    25    54    1
    57    25    55    1
    58    27    56    1
    59    27    57    1
    60    27    58    1
    61    28    59    1
    62    28    60    1
    63    28    61    1
    64    29    62    1
    65    29    63    1
    66    29    64    1
    67    31    65    1
@<TRIPOS>MOLECULE
b
 61 64 0 0 0
SMALL
GASTEIGER

@<TRIPOS>ATOM
      1 C           8.6265   -2.7829   -0.7318 C.3     1  UNL1       -0.0653
      2 C           7.3044   -3.5076   -0.9013 C.3     1  UNL1       -0.0559
      3 C           6.2963   -3.0187    0.1232 C.3     1  UNL1       -0.0533
      4 C           5.7662   -1.6518   -0.2659 C.3     1  UNL1       -0.0523
      5 C           4.7630   -1.1857    0.7709 C.3     1  UNL1       -0.0436
      6 C           4.2029    0.1742    0.3900 C.3     1  UNL1        0.0012
      7 S           3.0291    0.0291   -0.9954 S.3     1  UNL1       -0.0857
      8 C           1.6823   -0.4968    0.0690 C.ar    1  UNL1        0.1962
      9 N           1.4449   -1.7916    0.3497 N.ar    1  UNL1       -0.1220
     10 N           0.3560   -1.8320    1.1013 N.ar    1  UNL1       -0.1296
     11 C          -0.0576   -0.5617    1.2638 C.ar    1  UNL1        0.1764
     12 C          -1.2740   -0.2010    2.0551 C.3     1  UNL1        0.1492
     13 O          -2.4015   -0.0734    1.1947 O.3     1  UNL1       -0.4837
     14 C          -3.1287   -1.1667    0.7043 C.ar    1  UNL1        0.1288
     15 C          -4.1558   -0.9561   -0.2320 C.ar    1  UNL1        0.0238
     16 C          -4.4594    0.3346   -0.6868 C.ar    1  UNL1       -0.0505
     17 C          -5.4813    0.5305   -1.6202 C.ar    1  UNL1       -0.0611
     18 C          -6.2071   -0.5608   -2.1063 C.ar    1  UNL1       -0.0612
     19 C          -5.9142   -1.8531   -1.6616 C.ar    1  UNL1       -0.0539
     20 C          -4.8940   -2.0581   -0.7285 C.ar    1  UNL1       -0.0144
     21 C          -4.6034   -3.3504   -0.2869 C.ar    1  UNL1       -0.0538
     22 C          -3.5847   -3.5578    0.6451 C.ar    1  UNL1       -0.0577
     23 C          -2.8531   -2.4744    1.1378 C.ar    1  UNL1       -0.0193
     24 N           0.7506    0.3131    0.6225 N.ar    1  UNL1       -0.2714
     25 C           0.6376    1.7493    0.5429 C.ar    1  UNL1        0.0505
     26 C          -0.6212    2.3683    0.5628 C.ar    1  UNL1       -0.0343
     27 C          -0.7338    3.7592    0.4897 C.ar    1  UNL1       -0.0180
     28 C           0.4109    4.5553    0.3967 C.ar    1  UNL1        0.1202
     29 O           0.2664    5.9434    0.3245 O.3     1  UNL1       -0.4951
     30 C           1.3754    6.8267    0.2279 C.3     1  UNL1        0.0788
     31 C           1.6738    3.9439    0.3785 C.ar    1  UNL1       -0.0180
     32 C           1.7833    2.5531    0.4519 C.ar    1  UNL1       -0.0343
     33 H           9.3244   -3.1390   -1.4605 H       1  UNL1        0.0230
     34 H           9.0108   -2.9668    0.2497 H       1  UNL1        0.0230
     35 H           8.4768   -1.7318   -0.8651 H       1  UNL1        0.0230
     36 H           7.4591   -4.5582   -0.7699 H       1  UNL1        0.0263
     37 H           6.9248   -3.3111   -1.8822 H       1  UNL1        0.0263
     38 H           6.7700   -2.9536    1.0804 H       1  UNL1        0.0265
     39 H           5.4796   -3.7089    0.1628 H       1  UNL1        0.0265
     40 H           5.2892   -1.7130   -1.2217 H       1  UNL1        0.0266
     41 H           6.5771   -0.9555   -0.3163 H       1  UNL1        0.0266
     42 H           5.2467   -1.1141    1.7226 H       1  UNL1        0.0273
     43 H           3.9600   -1.8912    0.8195 H       1  UNL1        0.0273
     44 H           5.0085    0.8163    0.1008 H       1  UNL1        0.0381
     45 H           3.6863    0.5798    1.2347 H       1  UNL1        0.0381
     46 H          -1.1059    0.7287    2.5573 H       1  UNL1        0.0780
     47 H          -1.4666   -0.9734    2.7701 H       1  UNL1        0.0780
     48 H          -3.9263    1.1435   -0.3311 H       1  UNL1        0.0625
     49 H          -5.7004    1.4831   -1.9512 H       1  UNL1        0.0618
     50 H          -6.9610   -0.4120   -2.7952 H       1  UNL1        0.0618
     51 H          -6.4517   -2.6567   -2.0226 H       1  UNL1        0.0624
     52 H          -5.1418   -4.1526   -0.6496 H       1  UNL1        0.0624
     53 H          -3.3717   -4.5136    0.9708 H       1  UNL1        0.0619
     54 H          -2.1025   -2.6363    1.8273 H       1  UNL1        0.0654
     55 H          -1.4732    1.7902    0.6322 H       1  UNL1        0.0639
     56 H          -1.6666    4.2005    0.5045 H       1  UNL1        0.0655
     57 H           1.0244    7.8366    0.1857 H       1  UNL1        0.0660
     58 H           1.9317    6.6051   -0.6589 H       1  UNL1        0.0660
     59 H           2.0052    6.7034    1.0841 H       1  UNL1        0.0660
     60 H           2.5248    4.5237    0.3106 H       1  UNL1        0.0655
     61 H           2.7166    2.1128    0.4390 H       1  UNL1        0.0639
@<TRIPOS>BOND
     1     1     2    1
     2     2     3    1
     3     3     4    1
     4     4     5    1
     5     5     6    1
     6     6     7    1
     7     7     8    1
     8     8     9   ar
     9     9    10   ar
    10    10    11   ar
    11    11    12    1
    12    12    13    1
    13    13    14    1
    14    14    15   ar
    15    15    16   ar
    16    16    17   ar
    17    17    18   ar
    18    18    19   ar
    19    19    20   ar
    20    20    21   ar
    21    21    22   ar
    22    22    23   ar
    23    11    24   ar
    24    24    25    1
    25    25    26   ar
    26    26    27   ar
    27    27    28   ar
    28    28    29    1
    29    29    30    1
    30    28    31   ar
    31    31    32   ar
    32    24     8   ar
    33    32    25   ar
    34    23    14   ar
    35    20    15   ar
    36     1    33    1
    37     1    34    1
    38     1    35    1
    39     2    36    1
    40     2    37    1
    41     3    38    1
    42     3    39    1
    43     4    40    1
    44     4    41    1
    45     5    42    1
    46     5    43    1
    47     6    44    1
    48     6    45    1
    49    12    46    1
    50    12    47    1
    51    16    48    1
    52    17    49    1
    53    18    50    1
    54    19    51    1
    55    21    52    1
    56    22    53    1
    57    23    54    1
    58    26    55    1
    59    27    56    1
    60    30    57    1
    61    30    58    1
    62    30    59    1
    63    31    60    1
    64    32    61    1
@<TRIPOS>MOLECULE
c
 46 48 0 0 0
SMALL
GASTEIGER

@<TRIPOS>ATOM
      1 C           6.6825   -0.7917   -0.1492 C.3     1  UNL1        0.0789
      2 O           5.2831   -0.6068    0.0154 O.3     1  UNL1       -0.4933
      3 C           4.7039    0.6496    0.2278 C.ar    1  UNL1        0.1413
      4 C           3.3099    0.7484    0.3785 C.ar    1  UNL1        0.0770
      5 N           2.5129   -0.4440    0.3099 N.am    1  UNL1       -0.2812
      6 C           1.0875   -0.5336    0.4318 C.2     1  UNL1        0.2347
      7 O           0.3808    0.4923    0.6176 O.2     1  UNL1       -0.2737
      8 C           0.4262   -1.8636    0.3073 C.3     1  UNL1        0.0913
      9 N           0.2894   -2.2313   -1.0965 N.am    1  UNL1       -0.2904
     10 C           1.3801   -2.9782   -1.7045 C.3     1  UNL1        0.0040
     11 C          -0.8099   -1.7804   -1.9122 C.2     1  UNL1        0.2685
     12 O          -0.7391   -1.9017   -3.1658 O.2     1  UNL1       -0.2682
     13 C          -2.0317   -1.1848   -1.3331 C.ar    1  UNL1        0.1674
     14 N          -2.3173   -1.1143   -0.0211 N.ar    1  UNL1       -0.1424
     15 N          -3.4995   -0.5267    0.0560 N.ar    1  UNL1       -0.1496
     16 N          -3.9850   -0.2243   -1.1386 N.ar    1  UNL1       -0.1548
     17 C          -3.0783   -0.6310   -2.0490 C.ar    1  UNL1        0.0821
     18 C          -4.1744   -0.2472    1.2899 C.ar    1  UNL1        0.0862
     19 C          -5.4300    0.3787    1.2857 C.ar    1  UNL1       -0.0345
     20 C          -6.0866    0.6530    2.4891 C.ar    1  UNL1       -0.0597
     21 C          -5.4926    0.3035    3.7048 C.ar    1  UNL1       -0.0616
     22 C          -4.2420   -0.3203    3.7179 C.ar    1  UNL1       -0.0597
     23 C          -3.5849   -0.5945    2.5148 C.ar    1  UNL1       -0.0345
     24 C           2.7270    2.0073    0.5907 C.ar    1  UNL1       -0.0185
     25 C           3.5184    3.1558    0.6534 C.ar    1  UNL1        0.0430
     26 CL          2.7743    4.7172    0.9200 Cl      1  UNL1       -0.0835
     27 C           4.9022    3.0578    0.5040 C.ar    1  UNL1       -0.0398
     28 C           5.4930    1.8107    0.2922 C.ar    1  UNL1       -0.0167
     29 H           6.8900   -1.8309   -0.2973 H       1  UNL1        0.0660
     30 H           7.1931   -0.4472    0.7257 H       1  UNL1        0.0660
     31 H           7.0180   -0.2362   -0.9999 H       1  UNL1        0.0660
     32 H           2.9964   -1.2891    0.1637 H       1  UNL1        0.1550
     33 H          -0.5439   -1.8189    0.7566 H       1  UNL1        0.0560
     34 H           1.0261   -2.5982    0.8026 H       1  UNL1        0.0560
     35 H           2.1017   -3.2290   -0.9554 H       1  UNL1        0.0429
     36 H           1.8441   -2.3799   -2.4606 H       1  UNL1        0.0429
     37 H           0.9965   -3.8749   -2.1447 H       1  UNL1        0.0429
     38 H          -3.1502   -0.5463   -3.0750 H       1  UNL1        0.0872
     39 H          -5.8713    0.6380    0.3896 H       1  UNL1        0.0639
     40 H          -7.0100    1.1136    2.4796 H       1  UNL1        0.0618
     41 H          -5.9775    0.5060    4.5930 H       1  UNL1        0.0618
     42 H          -3.8036   -0.5785    4.6158 H       1  UNL1        0.0618
     43 H          -2.6613   -1.0548    2.5277 H       1  UNL1        0.0639
     44 H           1.7039    2.0848    0.7014 H       1  UNL1        0.0652
     45 H           5.4882    3.9060    0.5500 H       1  UNL1        0.0633
     46 H           6.5167    1.7410    0.1821 H       1  UNL1        0.0655
@<TRIPOS>BOND
     1     1     2    1
     2     2     3    1
     3     3     4   ar
     4     4     5    1
     5     5     6   am
     6     6     7    2
     7     6     8    1
     8     8     9    1
     9     9    10    1
    10     9    11   am
    11    11    12    2
    12    11    13    1
    13    13    14   ar
    14    14    15   ar
    15    15    16   ar
    16    16    17   ar
    17    15    18    1
    18    18    19   ar
    19    19    20   ar
    20    20    21   ar
    21    21    22   ar
    22    22    23   ar
    23     4    24   ar
    24    24    25   ar
    25    25    26    1
    26    25    27   ar
    27    27    28   ar
    28    28     3   ar
    29    17    13   ar
    30    23    18   ar
    31     1    29    1
    32     1    30    1
    33     1    31    1
    34     5    32    1
    35     8    33    1
    36     8    34    1
    37    10    35    1
    38    10    36    1
    39    10    37    1
    40    17    38    1
    41    19    39    1
    42    20    40    1
    43    21    41    1
    44    22    42    1
    45    23    43    1
    46    24    44    1
    47    27    45    1
    48    28    46    1
