a
     RDKit          3D

 31 33  0  0  0  0  0  0  0  0999 V2000
    6.1835   -2.0256   -0.0518 C   0  0  0  0  0  0  0  0  0  0  0  0
    4.7644   -1.6591    0.3364 C   0  0  0  0  0  0  0  0  0  0  0  0
    4.7743   -0.6226    1.4524 C   0  0  2  0  0  0  0  0  0  0  0  0
    3.4350   -0.5383    2.1611 C   0  0  0  0  0  0  0  0  0  0  0  0
    5.2680    0.6979    1.0363 N   0  0  0  0  0  0  0  0  0  0  0  0
    4.4211    1.3695   -0.3356 S   0  0  0  0  0  0  0  0  0  0  0  0
    4.7333    0.5720   -1.5714 O   0  0  0  0  0  0  0  0  0  0  0  0
    4.9003    2.7767   -0.5547 O   0  0  0  0  0  0  0  0  0  0  0  0
    2.6835    1.4086   -0.0839 C   0  0  0  0  0  0  0  0  0  0  0  0
    2.1154    2.4078    0.7395 C   0  0  0  0  0  0  0  0  0  0  0  0
    0.7274    2.4500    0.9644 C   0  0  0  0  0  0  0  0  0  0  0  0
   -0.0521    1.4738    0.3502 C   0  0  0  0  0  0  0  0  0  0  0  0
   -1.3873    1.3276    0.4272 N   0  0  0  0  0  0  0  0  0  0  0  0
   -1.6152    0.2346   -0.3491 C   0  0  0  0  0  0  0  0  0  0  0  0
   -2.9168   -0.3246   -0.5763 N   0  0  0  0  0  0  0  0  0  0  0  0
   -4.1579    0.1435   -0.0331 C   0  0  0  0  0  0  0  0  0  0  0  0
   -5.3368   -0.5305   -0.3708 C   0  0  0  0  0  0  0  0  0  0  0  0
   -6.5667   -0.1049    0.1402 C   0  0  0  0  0  0  0  0  0  0  0  0
   -6.6241    0.9999    0.9940 C   0  0  0  0  0  0  0  0  0  0  0  0
   -7.9311    1.4525    1.5372 C   0  0  0  0  0  0  0  0  0  0  0  0
   -5.4518    1.6786    1.3369 C   0  0  0  0  0  0  0  0  0  0  0  0
   -4.2229    1.2519    0.8253 C   0  0  0  0  0  0  0  0  0  0  0  0
   -0.4906   -0.2915   -0.8952 N   0  0  0  0  0  0  0  0  0  0  0  0
   -0.4142   -1.4852   -1.7460 C   0  0  1  0  0  0  0  0  0  0  0  0
    0.4216   -1.2246   -2.9967 C   0  0  0  0  0  0  0  0  0  0  0  0
   -0.0007   -2.7578   -0.9745 C   0  0  0  0  0  0  0  0  0  0  0  0
   -0.1633   -3.9735   -1.8688 C   0  0  0  0  0  0  0  0  0  0  0  0
    1.4424   -2.6939   -0.5046 C   0  0  0  0  0  0  0  0  0  0  0  0
   -0.8957   -2.9557    0.2357 C   0  0  0  0  0  0  0  0  0  0  0  0
    0.4935    0.5047   -0.4420 C   0  0  0  0  0  0  0  0  0  0  0  0
    1.8637    0.4381   -0.6902 C   0  0  0  0  0  0  0  0  0  0  0  0
  1  2  1  0
  2  3  1  0
  3  4  1  6
  3  5  1  0
  5  6  1  0
  6  7  2  0
  6  8  2  0
  6  9  1  0
  9 10  2  0
 10 11  1  0
 11 12  2  0
 12 13  1  0
 13 14  2  0
 14 15  1  0
 15 16  1  0
 16 17  2  0
 17 18  1  0
 18 19  2  0
 19 20  1  0
 19 21  1  0
 21 22  2  0
 14 23  1  0
 23 24  1  0
 24 25  1  6
 24 26  1  0
 26 27  1  0
 26 28  1  0
 26 29  1  0
 23 30  1  0
 30 31  2  0
 31  9  1  0
 30 12  1  0
 22 16  1  0
M  END
$$$$
b
     RDKit          3D

 32 35  0  0  0  0  0  0  0  0999 V2000
    8.6265   -2.7829   -0.7318 C   0  0  0  0  0  0  0  0  0  0  0  0
    7.3044   -3.5076   -0.9013 C   0  0  0  0  0  0  0  0  0  0  0  0
    6.2963   -3.0187    0.1232 C   0  0  0  0  0  0  0  0  0  0  0  0
    5.7662   -1.6518   -0.2659 C   0  0  0  0  0  0  0  0  0  0  0  0
    4.7630   -1.1857    0.7709 C   0  0  0  0  0  0  0  0  0  0  0  0
    4.2029    0.1742    0.3900 C   0  0  0  0  0  0  0  0  0  0  0  0
    3.0291    0.0291   -0.9954 S   0  0  0  0  0  0  0  0  0  0  0  0
    1.6823   -0.4968    0.0690 C   0  0  0  0  0  0  0  0  0  0  0  0
    1.4449   -1.7916    0.3497 N   0  0  0  0  0  0  0  0  0  0  0  0
    0.3560   -1.8320    1.1013 N   0  0  0  0  0  0  0  0  0  0  0  0
   -0.0576   -0.5617    1.2638 C   0  0  0  0  0  0  0  0  0  0  0  0
   -1.2740   -0.2010    2.0551 C   0  0  0  0  0  0  0  0  0  0  0  0
   -2.4015   -0.0734    1.1947 O   0  0  0  0  0  0  0  0  0  0  0  0
   -3.1287   -1.1667    0.7043 C   0  0  0  0  0  0  0  0  0  0  0  0
   -4.1558   -0.9561   -0.2320 C   0  0  0  0  0  0  0  0  0  0  0  0
   -4.4594    0.3346   -0.6868 C   0  0  0  0  0  0  0  0  0  0  0  0
   -5.4813    0.5305   -1.6202 C   0  0  0  0  0  0  0  0  0  0  0  0
   -6.2071   -0.5608   -2.1063 C   0  0  0  0  0  0  0  0  0  0  0  0
   -5.9142   -1.8531   -1.6616 C   0  0  0  0  0  0  0  0  0  0  0  0
   -4.8940   -2.0581   -0.7285 C   0  0  0  0  0  0  0  0  0  0  0  0
   -4.6034   -3.3504   -0.2869 C   0  0  0  0  0  0  0  0  0  0  0  0
   -3.5847   -3.5578    0.6451 C   0  0  0  0  0  0  0  0  0  0  0  0
   -2.8531   -2.4744    1.1378 C   0  0  0  0  0  0  0  0  0  0  0  0
    0.7506    0.3131    0.6225 N   0  0  0  0  0  0  0  0  0  0  0  0
    0.6376    1.7493    0.5429 C   0  0  0  0  0  0  0  0  0  0  0  0
   -0.6212    2.3683    0.5628 C   0  0  0  0  0  0  0  0  0  0  0  0
   -0.7338    3.7592    0.4897 C   0  0  0  0  0  0  0  0  0  0  0  0
    0.4109    4.5553    0.3967 C   0  0  0  0  0  0  0  0  0  0  0  0
    0.2664    5.9434    0.3245 O   0  0  0  0  0  0  0  0  0  0  0  0
    1.3754    6.8267    0.2279 C   0  0  0  0  0  0  0  0  0  0  0  0
    1.6738    3.9439    0.3785 C   0  0  0  0  0  0  0  0  0  0  0  0
    1.7833    2.5531    0.4519 C   0  0  0  0  0  0  0  0  0  0  0  0
  1  2  1  0
  2  3  1  0
  3  4  1  0
  4  5  1  0
  5  6  1  0
  6  7  1  0
  7  8  1  0
  8  9  2  0
  9 10  1  0
 10 11  2  0
 11 12  1  0
 12 13  1  0
 13 14  1  0
 14 15  1  0
 15 16  2  0
 16 17  1  0
 17 18  2  0
 18 19  1  0
 19 20  2  0
 20 21  1  0
 21 22  2  0
 22 23  1  0
 11 24  1  0
 24 25  1  0
 25 26  2  0
 26 27  1  0
 27 28  2  0
 28 29  1  0
 29 30  1  0
 28 31  1  0
 31 32  2  0
 24  8  1  0
 32 25  1  0
 23 14  2  0
 20 15  1  0
M  END
$$$$
c
     RDKit          3D

 28 30  0  0  0  0  0  0  0  0999 V2000
    6.6825   -0.7917   -0.1492 C   0  0  0  0  0  0  0  0  0  0  0  0
    5.2831   -0.6068    0.0154 O   0  0  0  0  0  0  0  0  0  0  0  0
    4.7039    0.6496    0.2278 C   0  0  0  0  0  0  0  0  0  0  0  0
    3.3099    0.7484    0.3785 C   0  0  0  0  0  0  0  0  0  0  0  0
    2.5129   -0.4440    0.3099 N   0  0  0  0  0  0  0  0  0  0  0  0
    1.0875   -0.5336    0.4318 C   0  0  0  0  0  0  0  0  0  0  0  0
    0.3808    0.4923    0.6176 O   0  0  0  0  0  0  0  0  0  0  0  0
    0.4262   -1.8636    0.3073 C   0  0  0  0  0  0  0  0  0  0  0  0
    0.2894   -2.2313   -1.0965 N   0  0  0  0  0  0  0  0  0  0  0  0
    1.3801   -2.9782   -1.7045 C   0  0  0  0  0  0  0  0  0  0  0  0
   -0.8099   -1.7804   -1.9122 C   0  0  0  0  0  0  0  0  0  0  0  0
   -0.7391   -1.9017   -3.1658 O   0  0  0  0  0  0  0  0  0  0  0  0
   -2.0317   -1.1848   -1.3331 C   0  0  0  0  0  0  0  0  0  0  0  0
   -2.3173   -1.1143   -0.0211 N   0  0  0  0  0  0  0  0  0  0  0  0
   -3.4995   -0.5267    0.0560 N   0  0  0  0  0  0  0  0  0  0  0  0
   -3.9850   -0.2243   -1.1386 N   0  0  0  0  0  0  0  0  0  0  0  0
   -3.0783   -0.6310   -2.0490 C   0  0  0  0  0  0  0  0  0  0  0  0
   -4.1744   -0.2472    1.2899 C   0  0  0  0  0  0  0  0  0  0  0  0
   -5.4300    0.3787    1.2857 C   0  0  0  0  0  0  0  0  0  0  0  0
   -6.0866    0.6530    2.4891 C   0  0  0  0  0  0  0  0  0  0  0  0
   -5.4926    0.3035    3.7048 C   0  0  0  0  0  0  0  0  0  0  0  0
   -4.2420   -0.3203    3.7179 C   0  0  0  0  0  0  0  0  0  0  0  0
   -3.5849   -0.5945    2.5148 C   0  0  0  0  0  0  0  0  0  0  0  0
    2.7270    2.0073    0.5907 C   0  0  0  0  0  0  0  0  0  0  0  0
    3.5184    3.1558    0.6534 C   0  0  0  0  0  0  0  0  0  0  0  0
    2.7743    4.7172    0.9200 Cl  0  0  0  0  0  0  0  0  0  0  0  0
    4.9022    3.0578    0.5040 C   0  0  0  0  0  0  0  0  0  0  0  0
    5.4930    1.8107    0.2922 C   0  0  0  0  0  0  0  0  0  0  0  0
  1  2  1  0
  2  3  1  0
  3  4  2  0
  4  5  1  0
  5  6  1  0
  6  7  2  0
  6  8  1  0
  8  9  1  0
  9 10  1  0
  9 11  1  0
 11 12  2  0
 11 13  1  0
 13 14  2  0
 14 15  1  0
 15 16  1  0
 16 17  2  0
 15 18  1  0
 18 19  2  0
 19 20  1  0
 20 21  2  0
 21 22  1  0
 22 23  2  0
  4 24  1  0
 24 25  2  0
 25 26  1  0
 25 27  1  0
 27 28  2  0
 28  3  1  0
 17 13  1  0
 23 18  1  0
M  END
$$$$
