@<TRIPOS>MOLECULE
Molecule abc_3.mol2
     4     0
SMALL
NO_CHARGES
@<TRIPOS>ATOM
      5 ACC        -2.3173   -1.1143   -0.0211 HB    4     HB      0.0000
      7 CAT        -3.4995   -0.5267    0.0560 CHG   6     CHG    -0.0571
      9 AR         -2.9824   -0.7362   -0.8972 AR    8     AR      0.0000
     10 AR         -4.8351    0.0289    2.5004 AR    9     AR      0.0000
@<TRIPOS>BOND
@<TRIPOS>MOLECULE
abc_3.mol2
    46    48
SMALL
NO_CHARGES
@<TRIPOS>ATOM
      1 C           6.6825   -0.7917   -0.1492 C.3   1     UNL1    0.0431
      2 O           5.2831   -0.6068    0.0154 O.3   1     UNL1   -0.3463
      3 C           4.7039    0.6496    0.2278 C.ar  1     UNL1    0.0940
      4 C           3.3099    0.7484    0.3785 C.ar  1     UNL1    0.0537
      5 N           2.5129   -0.4440    0.3099 N.am  1     UNL1   -0.2251
      6 C           1.0875   -0.5336    0.4318 C.2   1     UNL1    0.2195
      7 O           0.3808    0.4923    0.6176 O.2   1     UNL1   -0.2778
      8 C           0.4262   -1.8636    0.3073 C.3   1     UNL1    0.0799
      9 N           0.2894   -2.2313   -1.0965 N.am  1     UNL1   -0.2335
     10 C           1.3801   -2.9782   -1.7045 C.3   1     UNL1   -0.0046
     11 C          -0.8099   -1.7804   -1.9122 C.2   1     UNL1    0.2555
     12 O          -0.7391   -1.9017   -3.1658 O.2   1     UNL1   -0.2720
     13 C          -2.0317   -1.1848   -1.3331 C.ar  1     UNL1    0.1582
     14 N          -2.3173   -1.1143   -0.0211 N.ar  1     UNL1   -0.1651
     15 N          -3.4995   -0.5267    0.0560 N.ar  1     UNL1   -0.0571
     16 N          -3.9850   -0.2243   -1.1386 N.ar  1     UNL1   -0.1771
     17 C          -3.0783   -0.6310   -2.0490 C.ar  1     UNL1    0.0759
     18 C          -4.1744   -0.2472    1.2899 C.ar  1     UNL1    0.0641
     19 C          -5.4300    0.3787    1.2857 C.ar  1     UNL1   -0.0400
     20 C          -6.0866    0.6530    2.4891 C.ar  1     UNL1   -0.0602
     21 C          -5.4926    0.3035    3.7048 C.ar  1     UNL1   -0.0617
     22 C          -4.2420   -0.3203    3.7179 C.ar  1     UNL1   -0.0602
     23 C          -3.5849   -0.5945    2.5148 C.ar  1     UNL1   -0.0400
     24 C           2.7270    2.0073    0.5907 C.ar  1     UNL1   -0.0227
     25 C           3.5184    3.1558    0.6534 C.ar  1     UNL1    0.0426
     26 CL          2.7743    4.7172    0.9200 Cl    1     UNL1   -0.0835
     27 C           4.9022    3.0578    0.5040 C.ar  1     UNL1   -0.0409
     28 C           5.4930    1.8107    0.2922 C.ar  1     UNL1   -0.0288
     29 H1          7.1439   -1.7926   -0.3184 H     1     UNL1    0.0529
     30 H2          7.1866   -0.3358    0.7347 H     1     UNL1    0.0529
     31 H3          6.9741   -0.1668   -1.0254 H     1     UNL1    0.0529
     32 H           3.0138   -1.3195    0.1585 H     1     UNL1    0.1364
     33 H1         -0.5517   -1.8934    0.8421 H     1     UNL1    0.0523
     34 H2          1.0941   -2.6163    0.7875 H     1     UNL1    0.0523
     35 H1          1.2755   -3.2595   -2.7784 H     1     UNL1    0.0396
     36 H2          1.5810   -3.8942   -1.1013 H     1     UNL1    0.0396
     37 H3          2.2895   -2.3377   -1.6278 H     1     UNL1    0.0396
     38 H          -3.1552   -0.5405   -3.1456 H     1     UNL1    0.0867
     39 H          -5.9016    0.6558    0.3279 H     1     UNL1    0.0634
     40 H          -7.0736    1.1453    2.4790 H     1     UNL1    0.0618
     41 H          -6.0108    0.5200    4.6541 H     1     UNL1    0.0618
     42 H          -3.7734   -0.5963    4.6775 H     1     UNL1    0.0618
     43 H          -2.5978   -1.0865    2.5286 H     1     UNL1    0.0634
     44 H           1.6335    2.0901    0.7090 H     1     UNL1    0.0649
     45 H           5.5285    3.9644    0.5532 H     1     UNL1    0.0633
     46 H           6.5872    1.7362    0.1745 H     1     UNL1    0.0644
@<TRIPOS>BOND
     1     1     2    1 
     2     1    29    1 
     3     1    30    1 
     4     1    31    1 
     5     2     3    1 
     6     3     4    ar
     7     3    28    ar
     8     4     5    1 
     9     4    24    ar
    10     5     6    am
    11     5    32    1 
    12     6     7    2 
    13     6     8    1 
    14     8     9    1 
    15     8    33    1 
    16     8    34    1 
    17     9    10    1 
    18     9    11    am
    19    10    35    1 
    20    10    36    1 
    21    10    37    1 
    22    11    12    2 
    23    11    13    1 
    24    13    14    ar
    25    13    17    ar
    26    14    15    ar
    27    15    16    ar
    28    15    18    1 
    29    16    17    ar
    30    17    38    1 
    31    18    19    ar
    32    18    23    ar
    33    19    20    ar
    34    19    39    1 
    35    20    21    ar
    36    20    40    1 
    37    21    22    ar
    38    21    41    1 
    39    22    23    ar
    40    22    42    1 
    41    23    43    1 
    42    24    25    ar
    43    24    44    1 
    44    25    26    1 
    45    25    27    ar
    46    27    28    ar
    47    27    45    1 
    48    28    46    1 
@<TRIPOS>MOLECULE
Molecule abc_3.mol2
    12     0
SMALL
NO_CHARGES
@<TRIPOS>ATOM
      1 DON         2.5129   -0.4440    0.3099 HB    0     HB      0.0000
      2 ACC         5.2831   -0.6068    0.0154 HB    1     HB      0.0000
      3 ACC         0.3808    0.4923    0.6176 HB    2     HB      0.0000
      4 ACC        -0.7391   -1.9017   -3.1658 HB    3     HB      0.0000
      5 ACC        -2.3173   -1.1143   -0.0211 HB    4     HB      0.0000
      6 ACC        -3.9850   -0.2243   -1.1386 HB    5     HB      0.0000
      7 CAT        -3.4995   -0.5267    0.0560 CHG   6     CHG    -0.0571
      8 AR          4.1091    1.9049    0.4411 AR    7     AR      0.0000
      9 AR         -2.9824   -0.7362   -0.8972 AR    8     AR      0.0000
     10 AR         -4.8351    0.0289    2.5004 AR    9     AR      0.0000
     11 HYD         6.6825   -0.7917   -0.1492 HYD   10    HYD     0.0000
     12 HYD         1.3801   -2.9782   -1.7045 HYD   11    HYD     0.0000
@<TRIPOS>BOND
@<TRIPOS>MOLECULE
abc_1.mol2
    65    67
SMALL
NO_CHARGES
@<TRIPOS>ATOM
      1 C          -8.3660    4.6070    1.2839 C.3   1     UNL1   -0.0638
      2 C          -7.0440    3.8796    1.1354 C.3   1     UNL1   -0.0394
      3 C          -6.3429    3.7799    2.4839 C.3   1     UNL1    0.0190
      4 C          -4.8672    3.4589    2.3344 C.3   1     UNL1   -0.0484
      5 N          -7.0128    2.8872    3.4404 N.3   1     UNL1   -0.2536
      6 S          -7.2777    1.2711    2.8333 S.O2  1     UNL1    0.0000
      7 O          -8.3055    1.2977    1.7362 O.2   1     UNL1   -1.0000
      8 O          -7.8097    0.4189    3.9507 O.2   1     UNL1   -1.0000
      9 C          -5.7973    0.5399    2.2352 C.ar  1     UNL1   -0.0162
     10 C          -4.8482    0.0270    3.1491 C.ar  1     UNL1   -0.0519
     11 C          -3.6503   -0.5517    2.6919 C.ar  1     UNL1   -0.0341
     12 C          -3.4420   -0.5932    1.3162 C.ar  1     UNL1    0.0851
     13 N          -2.3770   -1.0975    0.6668 N.ar  1     UNL1   -0.2224
     14 C          -2.6903   -0.8800   -0.6385 C.ar  1     UNL1    0.1657
     15 N          -1.8078   -1.2883   -1.4761 N.pl3 1     UNL1   -0.2326
     16 C          -0.5515   -1.9773   -1.5130 C.ar  1     UNL1    0.0218
     17 C           0.0796   -2.1599   -2.7485 C.ar  1     UNL1   -0.0433
     18 C           1.3067   -2.8257   -2.8250 C.ar  1     UNL1   -0.0574
     19 C           1.9108   -3.3135   -1.6631 C.ar  1     UNL1   -0.0503
     20 C           3.2149   -4.0211   -1.7441 C.3   1     UNL1   -0.0397
     21 C           1.2879   -3.1351   -0.4251 C.ar  1     UNL1   -0.0574
     22 C           0.0612   -2.4693   -0.3501 C.ar  1     UNL1   -0.0433
     23 N          -3.8891   -0.2715   -0.8184 N.ar  1     UNL1   -0.2135
     24 C          -4.4798    0.1219   -2.1032 C.3   1     UNL1    0.0244
     25 C          -3.7202   -0.4925   -3.2763 C.3   1     UNL1   -0.0482
     26 C          -6.0070   -0.1003   -2.1652 C.3   1     UNL1   -0.0216
     27 C          -6.5653    0.5337   -3.4264 C.3   1     UNL1   -0.0586
     28 C          -6.3671   -1.5760   -2.1668 C.3   1     UNL1   -0.0586
     29 C          -6.6855    0.5624   -0.9797 C.3   1     UNL1   -0.0586
     30 C          -4.3542   -0.0949    0.4308 C.ar  1     UNL1    0.0511
     31 C          -5.5534    0.4792    0.8501 C.ar  1     UNL1   -0.0335
     32 H1         -8.8793    4.6800    0.2967 H     1     UNL1    0.0230
     33 H2         -8.2399    5.6062    1.7624 H     1     UNL1    0.0230
     34 H3         -9.0129    3.9937    1.9537 H     1     UNL1    0.0230
     35 H1         -6.3939    4.3514    0.3621 H     1     UNL1    0.0278
     36 H2         -7.2687    2.8414    0.7967 H     1     UNL1    0.0278
     37 H          -6.3912    4.8002    2.9309 H     1     UNL1    0.0471
     38 H1         -4.3540    3.3859    3.3216 H     1     UNL1    0.0245
     39 H2         -4.3588    4.1933    1.6672 H     1     UNL1    0.0245
     40 H3         -4.7925    2.4593    1.8463 H     1     UNL1    0.0245
     41 H          -7.2970    3.1845    4.3738 H     1     UNL1    0.1408
     42 H          -5.0493    0.0812    4.2323 H     1     UNL1    0.0624
     43 H          -2.9047   -0.9569    3.3965 H     1     UNL1    0.0639
     44 H          -2.1764   -0.9615   -2.3693 H     1     UNL1    0.1360
     45 H          -0.3940   -1.7762   -3.6678 H     1     UNL1    0.0633
     46 H           1.7980   -2.9659   -3.8026 H     1     UNL1    0.0621
     47 H1          3.6969   -4.4103   -0.8171 H     1     UNL1    0.0278
     48 H2          3.9430   -3.3595   -2.2689 H     1     UNL1    0.0278
     49 H3          3.0543   -4.9018   -2.4089 H     1     UNL1    0.0278
     50 H           1.7641   -3.5196    0.4926 H     1     UNL1    0.0621
     51 H          -0.4281   -2.3297    0.6285 H     1     UNL1    0.0633
     52 H          -4.3280    1.2235   -2.1846 H     1     UNL1    0.0473
     53 H1         -4.1688   -0.1937   -4.2523 H     1     UNL1    0.0245
     54 H2         -3.6491   -1.6012   -3.1815 H     1     UNL1    0.0245
     55 H3         -2.6814   -0.0883   -3.2492 H     1     UNL1    0.0245
     56 H1         -7.6678    0.3733   -3.4711 H     1     UNL1    0.0235
     57 H2         -6.0500    0.1667   -4.3445 H     1     UNL1    0.0235
     58 H3         -6.3879    1.6323   -3.3574 H     1     UNL1    0.0235
     59 H1         -7.4696   -1.7364   -2.2115 H     1     UNL1    0.0235
     60 H2         -5.9164   -2.1036   -1.2940 H     1     UNL1    0.0235
     61 H3         -5.9285   -2.0241   -3.0887 H     1     UNL1    0.0235
     62 H1         -7.7880    0.4020   -1.0245 H     1     UNL1    0.0235
     63 H2         -6.4256    1.6441   -0.9035 H     1     UNL1    0.0235
     64 H3         -6.3111    0.0619   -0.0564 H     1     UNL1    0.0235
     65 H          -6.2844    0.8716    0.1232 H     1     UNL1    0.0640
@<TRIPOS>BOND
     1     1     2    1 
     2     1    32    1 
     3     1    33    1 
     4     1    34    1 
     5     2     3    1 
     6     2    35    1 
     7     2    36    1 
     8     3     4    1 
     9     3     5    1 
    10     3    37    1 
    11     4    38    1 
    12     4    39    1 
    13     4    40    1 
    14     5     6    1 
    15     5    41    1 
    16     6     7    2 
    17     6     8    2 
    18     6     9    1 
    19     9    10    ar
    20     9    31    ar
    21    10    11    ar
    22    10    42    1 
    23    11    12    ar
    24    11    43    1 
    25    12    13    ar
    26    12    30    ar
    27    13    14    ar
    28    14    15    1 
    29    14    23    ar
    30    15    16    1 
    31    15    44    1 
    32    16    17    ar
    33    16    22    ar
    34    17    18    ar
    35    17    45    1 
    36    18    19    ar
    37    18    46    1 
    38    19    20    1 
    39    19    21    ar
    40    20    47    1 
    41    20    48    1 
    42    20    49    1 
    43    21    22    ar
    44    21    50    1 
    45    22    51    1 
    46    23    24    1 
    47    23    30    ar
    48    24    25    1 
    49    24    26    1 
    50    24    52    1 
    51    25    53    1 
    52    25    54    1 
    53    25    55    1 
    54    26    27    1 
    55    26    28    1 
    56    26    29    1 
    57    27    56    1 
    58    27    57    1 
    59    27    58    1 
    60    28    59    1 
    61    28    60    1 
    62    28    61    1 
    63    29    62    1 
    64    29    63    1 
    65    29    64    1 
    66    30    31    ar
    67    31    65    1 
@<TRIPOS>MOLECULE
Molecule abc_1.mol2
    22     0
SMALL
NO_CHARGES
@<TRIPOS>ATOM
      1 DON        -7.0128    2.8872    3.4404 HB    0     HB      0.0000
      2 DON        -1.8078   -1.2883   -1.4761 HB    1     HB      0.0000
      3 ACC        -7.0128    2.8872    3.4404 HB    2     HB      0.0000
      4 ACC        -8.3055    1.2977    1.7362 HB    3     HB      0.0000
      5 ACC        -7.8097    0.4189    3.9507 HB    4     HB      0.0000
      6 ACC        -2.3770   -1.0975    0.6668 HB    5     HB      0.0000
      7 CAT        -3.8891   -0.2715   -0.8184 CHG   6     CHG    -0.2135
      8 AR         -4.6076   -0.0323    1.7789 AR    7     AR      0.0000
      9 AR         -3.3505   -0.5874    0.1914 AR    8     AR      0.0000
     10 AR          0.6825   -2.6468   -1.5875 AR    9     AR      0.0000
     11 HYD        -7.7050    4.2433    1.2097 HYD   10    HYD     0.0000
     12 HYD         2.5628   -3.6673   -1.7036 HYD   11    HYD     0.0000
     13 HYD        -6.2862    0.2167   -2.7958 HYD   12    HYD     0.0000
     14 HYD        -6.1871   -0.8381   -2.1660 HYD   13    HYD     0.0000
     15 HYD        -6.3463    0.2311   -1.5725 HYD   14    HYD     0.0000
     16 HYD        -8.3660    4.6070    1.2839 HYD   15    HYD     0.0000
     17 HYD        -4.8672    3.4589    2.3344 HYD   16    HYD     0.0000
     18 HYD         3.2149   -4.0211   -1.7441 HYD   17    HYD     0.0000
     19 HYD        -3.7202   -0.4925   -3.2763 HYD   18    HYD     0.0000
     20 HYD        -6.5653    0.5337   -3.4264 HYD   19    HYD     0.0000
     21 HYD        -6.3671   -1.5760   -2.1668 HYD   20    HYD     0.0000
     22 HYD        -6.6855    0.5624   -0.9797 HYD   21    HYD     0.0000
@<TRIPOS>BOND
@<TRIPOS>MOLECULE
abc_2.mol2
    61    64
SMALL
NO_CHARGES
@<TRIPOS>ATOM
      1 C           1.0195    2.6902    4.3641 C.3   1     UNL1   -0.0653
      2 C          -0.4749    2.6350    4.1080 C.3   1     UNL1   -0.0559
      3 C          -0.7558    2.5765    2.6171 C.3   1     UNL1   -0.0533
      4 C          -0.4621    1.1899    2.0769 C.3   1     UNL1   -0.0523
      5 C          -0.7497    1.1567    0.5886 C.3   1     UNL1   -0.0436
      6 C          -0.4818   -0.2303    0.0296 C.3   1     UNL1    0.0007
      7 S          -1.7901   -1.3959    0.5278 S.3   1     UNL1   -0.0914
      8 C          -2.9174   -0.8340   -0.7516 C.ar  1     UNL1    0.1759
      9 N          -2.6182   -0.9046   -2.0620 N.ar  1     UNL1   -0.1284
     10 N          -3.6271   -0.3559   -2.7201 N.ar  1     UNL1   -0.1370
     11 C          -4.5246    0.0458   -1.8013 C.ar  1     UNL1    0.1451
     12 C          -5.8066    0.7246   -2.1641 C.3   1     UNL1    0.1092
     13 O          -5.6512    2.1386   -2.0987 O.3   1     UNL1   -0.3369
     14 C          -5.0432    2.8980   -3.1077 C.ar  1     UNL1    0.0844
     15 C          -4.8272    4.2728   -2.9099 C.ar  1     UNL1    0.0121
     16 C          -5.2074    4.8945   -1.7125 C.ar  1     UNL1   -0.0516
     17 C          -4.9846    6.2619   -1.5269 C.ar  1     UNL1   -0.0611
     18 C          -4.3804    7.0182   -2.5353 C.ar  1     UNL1   -0.0612
     19 C          -3.9958    6.4106   -3.7339 C.ar  1     UNL1   -0.0539
     20 C          -4.2148    5.0439   -3.9279 C.ar  1     UNL1   -0.0154
     21 C          -3.8288    4.4399   -5.1260 C.ar  1     UNL1   -0.0539
     22 C          -4.0464    3.0747   -5.3222 C.ar  1     UNL1   -0.0587
     23 C          -4.6496    2.3093   -4.3212 C.ar  1     UNL1   -0.0310
     24 N          -4.1116   -0.2331   -0.5438 N.ar  1     UNL1   -0.1747
     25 C          -5.0687    0.2248    0.6931 C.ar  1     UNL1    0.0307
     26 C          -4.4940   -0.1196    1.9256 C.ar  1     UNL1   -0.0405
     27 C          -5.1575    0.1558    3.1242 C.ar  1     UNL1   -0.0302
     28 C          -6.4068    0.7816    3.1109 C.ar  1     UNL1    0.0759
     29 O          -7.0462    1.0435    4.3256 O.3   1     UNL1   -0.3479
     30 C          -6.8685    0.2304    5.4775 C.3   1     UNL1    0.0430
     31 C          -6.9874    1.1313    1.8821 C.ar  1     UNL1   -0.0302
     32 C          -6.3217    0.8550    0.6854 C.ar  1     UNL1   -0.0405
     33 H1          1.2258    2.7333    5.4590 H     1     UNL1    0.0230
     34 H2          1.5032    3.5331    3.8174 H     1     UNL1    0.0230
     35 H3          1.4611    1.7425    3.9769 H     1     UNL1    0.0230
     36 H1         -1.0114    3.4804    4.5984 H     1     UNL1    0.0263
     37 H2         -0.8572    1.6893    4.5583 H     1     UNL1    0.0263
     38 H1         -0.2001    3.3656    2.0589 H     1     UNL1    0.0265
     39 H2         -1.8447    2.7683    2.4735 H     1     UNL1    0.0265
     40 H1         -1.0150    0.3957    2.6309 H     1     UNL1    0.0266
     41 H2          0.6279    0.9992    2.2135 H     1     UNL1    0.0266
     42 H1         -0.1827    1.9433    0.0382 H     1     UNL1    0.0273
     43 H2         -1.8357    1.3691    0.4523 H     1     UNL1    0.0273
     44 H1          0.5304   -0.6009    0.3149 H     1     UNL1    0.0380
     45 H2         -0.5084   -0.1534   -1.0823 H     1     UNL1    0.0380
     46 H1         -6.6575    0.3698   -1.5368 H     1     UNL1    0.0642
     47 H2         -6.0377    0.4612   -3.2226 H     1     UNL1    0.0642
     48 H          -5.6843    4.3023   -0.9135 H     1     UNL1    0.0624
     49 H          -5.2862    6.7453   -0.5825 H     1     UNL1    0.0618
     50 H          -4.2067    8.0970   -2.3849 H     1     UNL1    0.0618
     51 H          -3.5191    7.0103   -4.5275 H     1     UNL1    0.0624
     52 H          -3.3518    5.0414   -5.9180 H     1     UNL1    0.0624
     53 H          -3.7412    2.5995   -6.2697 H     1     UNL1    0.0619
     54 H          -4.8187    1.2318   -4.4852 H     1     UNL1    0.0643
     55 H          -3.5078   -0.6131    1.9489 H     1     UNL1    0.0634
     56 H          -4.6930   -0.1221    4.0853 H     1     UNL1    0.0644
     57 H1         -7.3786    0.4393    6.4467 H     1     UNL1    0.0529
     58 H2         -5.7738    0.1711    5.6806 H     1     UNL1    0.0529
     59 H3         -7.1824   -0.7973    5.1800 H     1     UNL1    0.0529
     60 H          -7.9728    1.6262    1.8611 H     1     UNL1    0.0644
     61 H          -6.7862    1.1351   -0.2750 H     1     UNL1    0.0634
@<TRIPOS>BOND
     1     1     2    1 
     2     1    33    1 
     3     1    34    1 
     4     1    35    1 
     5     2     3    1 
     6     2    36    1 
     7     2    37    1 
     8     3     4    1 
     9     3    38    1 
    10     3    39    1 
    11     4     5    1 
    12     4    40    1 
    13     4    41    1 
    14     5     6    1 
    15     5    42    1 
    16     5    43    1 
    17     6     7    1 
    18     6    44    1 
    19     6    45    1 
    20     7     8    1 
    21     8     9    ar
    22     8    24    ar
    23     9    10    ar
    24    10    11    ar
    25    11    12    1 
    26    11    24    ar
    27    12    13    1 
    28    12    46    1 
    29    12    47    1 
    30    13    14    1 
    31    14    15    ar
    32    14    23    ar
    33    15    16    ar
    34    15    20    ar
    35    16    17    ar
    36    16    48    1 
    37    17    18    ar
    38    17    49    1 
    39    18    19    ar
    40    18    50    1 
    41    19    20    ar
    42    19    51    1 
    43    20    21    ar
    44    21    22    ar
    45    21    52    1 
    46    22    23    ar
    47    22    53    1 
    48    23    54    1 
    49    24    25    1 
    50    25    26    ar
    51    25    32    ar
    52    26    27    ar
    53    26    55    1 
    54    27    28    ar
    55    27    56    1 
    56    28    29    1 
    57    28    31    ar
    58    29    30    1 
    59    30    57    1 
    60    30    58    1 
    61    30    59    1 
    62    31    32    ar
    63    31    60    1 
    64    32    61    1 
@<TRIPOS>MOLECULE
Molecule abc_2.mol2
    16     0
SMALL
NO_CHARGES
@<TRIPOS>ATOM
      1 ACC        -1.7901   -1.3959    0.5278 HB    0     HB      0.0000
      2 ACC        -2.6182   -0.9046   -2.0620 HB    1     HB      0.0000
      3 ACC        -3.6271   -0.3559   -2.7201 HB    2     HB      0.0000
      4 ACC        -5.6512    2.1386   -2.0987 HB    3     HB      0.0000
      5 ACC        -7.0462    1.0435    4.3256 HB    4     HB      0.0000
      6 CAT        -4.3793   -0.0573   -0.5426 CHG   5     CHG    -0.1747
      7 AR         -3.5598   -0.4563   -1.5758 AR    6     AR      0.0000
      8 AR         -4.4350    3.6731   -4.1192 AR    7     AR      0.0000
      9 AR         -4.6017    5.6503   -2.7244 AR    8     AR      0.0000
     10 AR         -5.7394    0.5048    1.9036 AR    9     AR      0.0000
     11 HYD        -0.6059    1.1733    1.3328 HYD   10    HYD     0.0000
     12 HYD        -0.6089    1.8832    2.3470 HYD   11    HYD     0.0000
     13 HYD        -0.6153    2.6057    3.3625 HYD   12    HYD     0.0000
     14 HYD         0.2723    2.6626    4.2360 HYD   13    HYD     0.0000
     15 HYD         1.0195    2.6902    4.3641 HYD   14    HYD     0.0000
     16 HYD        -6.8685    0.2304    5.4775 HYD   15    HYD     0.0000
@<TRIPOS>BOND
