@<TRIPOS>MOLECULE
abc_1.mol2
    65    67
SMALL
NO_CHARGES
@<TRIPOS>ATOM
      1 C          -8.3660    4.6070    1.2839 C.3   1     UNL1   -0.0638
      2 C          -7.0440    3.8796    1.1354 C.3   1     UNL1   -0.0394
      3 C          -6.3429    3.7799    2.4839 C.3   1     UNL1    0.0190
      4 C          -4.8672    3.4589    2.3344 C.3   1     UNL1   -0.0484
      5 N          -7.0128    2.8872    3.4404 N.3   1     UNL1   -0.2536
      6 S          -7.2777    1.2711    2.8333 S.O2  1     UNL1    0.0000
      7 O          -8.3055    1.2977    1.7362 O.2   1     UNL1   -1.0000
      8 O          -7.8097    0.4189    3.9507 O.2   1     UNL1   -1.0000
      9 C          -5.7973    0.5399    2.2352 C.ar  1     UNL1   -0.0162
     10 C          -4.8482    0.0270    3.1491 C.ar  1     UNL1   -0.0519
     11 C          -3.6503   -0.5517    2.6919 C.ar  1     UNL1   -0.0341
     12 C          -3.4420   -0.5932    1.3162 C.ar  1     UNL1    0.0851
     13 N          -2.3770   -1.0975    0.6668 N.ar  1     UNL1   -0.2224
     14 C          -2.6903   -0.8800   -0.6385 C.ar  1     UNL1    0.1657
     15 N          -1.8078   -1.2883   -1.4761 N.pl3 1     UNL1   -0.2326
     16 C          -0.5515   -1.9773   -1.5130 C.ar  1     UNL1    0.0218
     17 C           0.0796   -2.1599   -2.7485 C.ar  1     UNL1   -0.0433
     18 C           1.3067   -2.8257   -2.8250 C.ar  1     UNL1   -0.0574
     19 C           1.9108   -3.3135   -1.6631 C.ar  1     UNL1   -0.0503
     20 C           3.2149   -4.0211   -1.7441 C.3   1     UNL1   -0.0397
     21 C           1.2879   -3.1351   -0.4251 C.ar  1     UNL1   -0.0574
     22 C           0.0612   -2.4693   -0.3501 C.ar  1     UNL1   -0.0433
     23 N          -3.8891   -0.2715   -0.8184 N.ar  1     UNL1   -0.2135
     24 C          -4.4798    0.1219   -2.1032 C.3   1     UNL1    0.0244
     25 C          -3.7202   -0.4925   -3.2763 C.3   1     UNL1   -0.0482
     26 C          -6.0070   -0.1003   -2.1652 C.3   1     UNL1   -0.0216
     27 C          -6.5653    0.5337   -3.4264 C.3   1     UNL1   -0.0586
     28 C          -6.3671   -1.5760   -2.1668 C.3   1     UNL1   -0.0586
     29 C          -6.6855    0.5624   -0.9797 C.3   1     UNL1   -0.0586
     30 C          -4.3542   -0.0949    0.4308 C.ar  1     UNL1    0.0511
     31 C          -5.5534    0.4792    0.8501 C.ar  1     UNL1   -0.0335
     32 H1         -8.8793    4.6800    0.2967 H     1     UNL1    0.0230
     33 H2         -8.2399    5.6062    1.7624 H     1     UNL1    0.0230
     34 H3         -9.0129    3.9937    1.9537 H     1     UNL1    0.0230
     35 H1         -6.3939    4.3514    0.3621 H     1     UNL1    0.0278
     36 H2         -7.2687    2.8414    0.7967 H     1     UNL1    0.0278
     37 H          -6.3912    4.8002    2.9309 H     1     UNL1    0.0471
     38 H1         -4.3540    3.3859    3.3216 H     1     UNL1    0.0245
     39 H2         -4.3588    4.1933    1.6672 H     1     UNL1    0.0245
     40 H3         -4.7925    2.4593    1.8463 H     1     UNL1    0.0245
     41 H          -7.2970    3.1845    4.3738 H     1     UNL1    0.1408
     42 H          -5.0493    0.0812    4.2323 H     1     UNL1    0.0624
     43 H          -2.9047   -0.9569    3.3965 H     1     UNL1    0.0639
     44 H          -2.1764   -0.9615   -2.3693 H     1     UNL1    0.1360
     45 H          -0.3940   -1.7762   -3.6678 H     1     UNL1    0.0633
     46 H           1.7980   -2.9659   -3.8026 H     1     UNL1    0.0621
     47 H1          3.6969   -4.4103   -0.8171 H     1     UNL1    0.0278
     48 H2          3.9430   -3.3595   -2.2689 H     1     UNL1    0.0278
     49 H3          3.0543   -4.9018   -2.4089 H     1     UNL1    0.0278
     50 H           1.7641   -3.5196    0.4926 H     1     UNL1    0.0621
     51 H          -0.4281   -2.3297    0.6285 H     1     UNL1    0.0633
     52 H          -4.3280    1.2235   -2.1846 H     1     UNL1    0.0473
     53 H1         -4.1688   -0.1937   -4.2523 H     1     UNL1    0.0245
     54 H2         -3.6491   -1.6012   -3.1815 H     1     UNL1    0.0245
     55 H3         -2.6814   -0.0883   -3.2492 H     1     UNL1    0.0245
     56 H1         -7.6678    0.3733   -3.4711 H     1     UNL1    0.0235
     57 H2         -6.0500    0.1667   -4.3445 H     1     UNL1    0.0235
     58 H3         -6.3879    1.6323   -3.3574 H     1     UNL1    0.0235
     59 H1         -7.4696   -1.7364   -2.2115 H     1     UNL1    0.0235
     60 H2         -5.9164   -2.1036   -1.2940 H     1     UNL1    0.0235
     61 H3         -5.9285   -2.0241   -3.0887 H     1     UNL1    0.0235
     62 H1         -7.7880    0.4020   -1.0245 H     1     UNL1    0.0235
     63 H2         -6.4256    1.6441   -0.9035 H     1     UNL1    0.0235
     64 H3         -6.3111    0.0619   -0.0564 H     1     UNL1    0.0235
     65 H          -6.2844    0.8716    0.1232 H     1     UNL1    0.0640
@<TRIPOS>BOND
     1     1     2    1 
     2     1    32    1 
     3     1    33    1 
     4     1    34    1 
     5     2     3    1 
     6     2    35    1 
     7     2    36    1 
     8     3     4    1 
     9     3     5    1 
    10     3    37    1 
    11     4    38    1 
    12     4    39    1 
    13     4    40    1 
    14     5     6    1 
    15     5    41    1 
    16     6     7    2 
    17     6     8    2 
    18     6     9    1 
    19     9    10    ar
    20     9    31    ar
    21    10    11    ar
    22    10    42    1 
    23    11    12    ar
    24    11    43    1 
    25    12    13    ar
    26    12    30    ar
    27    13    14    ar
    28    14    15    1 
    29    14    23    ar
    30    15    16    1 
    31    15    44    1 
    32    16    17    ar
    33    16    22    ar
    34    17    18    ar
    35    17    45    1 
    36    18    19    ar
    37    18    46    1 
    38    19    20    1 
    39    19    21    ar
    40    20    47    1 
    41    20    48    1 
    42    20    49    1 
    43    21    22    ar
    44    21    50    1 
    45    22    51    1 
    46    23    24    1 
    47    23    30    ar
    48    24    25    1 
    49    24    26    1 
    50    24    52    1 
    51    25    53    1 
    52    25    54    1 
    53    25    55    1 
    54    26    27    1 
    55    26    28    1 
    56    26    29    1 
    57    27    56    1 
    58    27    57    1 
    59    27    58    1 
    60    28    59    1 
    61    28    60    1 
    62    28    61    1 
    63    29    62    1 
    64    29    63    1 
    65    29    64    1 
    66    30    31    ar
    67    31    65    1 