@<TRIPOS>MOLECULE
Molecule abc_1.mol2
    22     0
SMALL
NO_CHARGES
@<TRIPOS>ATOM
      1 DON        -7.0128    2.8872    3.4404 HB    0     HB      0.0000
      2 DON        -1.8078   -1.2883   -1.4761 HB    1     HB      0.0000
      3 ACC        -7.0128    2.8872    3.4404 HB    2     HB      0.0000
      4 ACC        -8.3055    1.2977    1.7362 HB    3     HB      0.0000
      5 ACC        -7.8097    0.4189    3.9507 HB    4     HB      0.0000
      6 ACC        -2.3770   -1.0975    0.6668 HB    5     HB      0.0000
      7 CAT        -3.8891   -0.2715   -0.8184 CHG   6     CHG    -0.2135
      8 AR         -4.6076   -0.0323    1.7789 AR    7     AR      0.0000
      9 AR         -3.3505   -0.5874    0.1914 AR    8     AR      0.0000
     10 AR          0.6825   -2.6468   -1.5875 AR    9     AR      0.0000
     11 HYD        -7.7050    4.2433    1.2097 HYD   10    HYD     0.0000
     12 HYD         2.5628   -3.6673   -1.7036 HYD   11    HYD     0.0000
     13 HYD        -6.2862    0.2167   -2.7958 HYD   12    HYD     0.0000
     14 HYD        -6.1871   -0.8381   -2.1660 HYD   13    HYD     0.0000
     15 HYD        -6.3463    0.2311   -1.5725 HYD   14    HYD     0.0000
     16 HYD        -8.3660    4.6070    1.2839 HYD   15    HYD     0.0000
     17 HYD        -4.8672    3.4589    2.3344 HYD   16    HYD     0.0000
     18 HYD         3.2149   -4.0211   -1.7441 HYD   17    HYD     0.0000
     19 HYD        -3.7202   -0.4925   -3.2763 HYD   18    HYD     0.0000
     20 HYD        -6.5653    0.5337   -3.4264 HYD   19    HYD     0.0000
     21 HYD        -6.3671   -1.5760   -2.1668 HYD   20    HYD     0.0000
     22 HYD        -6.6855    0.5624   -0.9797 HYD   21    HYD     0.0000
@<TRIPOS>BOND