@<TRIPOS>MOLECULE
abc_2.mol2
    61    64
SMALL
NO_CHARGES
@<TRIPOS>ATOM
      1 C           1.0195    2.6902    4.3641 C.3   1     UNL1   -0.0653
      2 C          -0.4749    2.6350    4.1080 C.3   1     UNL1   -0.0559
      3 C          -0.7558    2.5765    2.6171 C.3   1     UNL1   -0.0533
      4 C          -0.4621    1.1899    2.0769 C.3   1     UNL1   -0.0523
      5 C          -0.7497    1.1567    0.5886 C.3   1     UNL1   -0.0436
      6 C          -0.4818   -0.2303    0.0296 C.3   1     UNL1    0.0007
      7 S          -1.7901   -1.3959    0.5278 S.3   1     UNL1   -0.0914
      8 C          -2.9174   -0.8340   -0.7516 C.ar  1     UNL1    0.1759
      9 N          -2.6182   -0.9046   -2.0620 N.ar  1     UNL1   -0.1284
     10 N          -3.6271   -0.3559   -2.7201 N.ar  1     UNL1   -0.1370
     11 C          -4.5246    0.0458   -1.8013 C.ar  1     UNL1    0.1451
     12 C          -5.8066    0.7246   -2.1641 C.3   1     UNL1    0.1092
     13 O          -5.6512    2.1386   -2.0987 O.3   1     UNL1   -0.3369
     14 C          -5.0432    2.8980   -3.1077 C.ar  1     UNL1    0.0844
     15 C          -4.8272    4.2728   -2.9099 C.ar  1     UNL1    0.0121
     16 C          -5.2074    4.8945   -1.7125 C.ar  1     UNL1   -0.0516
     17 C          -4.9846    6.2619   -1.5269 C.ar  1     UNL1   -0.0611
     18 C          -4.3804    7.0182   -2.5353 C.ar  1     UNL1   -0.0612
     19 C          -3.9958    6.4106   -3.7339 C.ar  1     UNL1   -0.0539
     20 C          -4.2148    5.0439   -3.9279 C.ar  1     UNL1   -0.0154
     21 C          -3.8288    4.4399   -5.1260 C.ar  1     UNL1   -0.0539
     22 C          -4.0464    3.0747   -5.3222 C.ar  1     UNL1   -0.0587
     23 C          -4.6496    2.3093   -4.3212 C.ar  1     UNL1   -0.0310
     24 N          -4.1116   -0.2331   -0.5438 N.ar  1     UNL1   -0.1747
     25 C          -5.0687    0.2248    0.6931 C.ar  1     UNL1    0.0307
     26 C          -4.4940   -0.1196    1.9256 C.ar  1     UNL1   -0.0405
     27 C          -5.1575    0.1558    3.1242 C.ar  1     UNL1   -0.0302
     28 C          -6.4068    0.7816    3.1109 C.ar  1     UNL1    0.0759
     29 O          -7.0462    1.0435    4.3256 O.3   1     UNL1   -0.3479
     30 C          -6.8685    0.2304    5.4775 C.3   1     UNL1    0.0430
     31 C          -6.9874    1.1313    1.8821 C.ar  1     UNL1   -0.0302
     32 C          -6.3217    0.8550    0.6854 C.ar  1     UNL1   -0.0405
     33 H1          1.2258    2.7333    5.4590 H     1     UNL1    0.0230
     34 H2          1.5032    3.5331    3.8174 H     1     UNL1    0.0230
     35 H3          1.4611    1.7425    3.9769 H     1     UNL1    0.0230
     36 H1         -1.0114    3.4804    4.5984 H     1     UNL1    0.0263
     37 H2         -0.8572    1.6893    4.5583 H     1     UNL1    0.0263
     38 H1         -0.2001    3.3656    2.0589 H     1     UNL1    0.0265
     39 H2         -1.8447    2.7683    2.4735 H     1     UNL1    0.0265
     40 H1         -1.0150    0.3957    2.6309 H     1     UNL1    0.0266
     41 H2          0.6279    0.9992    2.2135 H     1     UNL1    0.0266
     42 H1         -0.1827    1.9433    0.0382 H     1     UNL1    0.0273
     43 H2         -1.8357    1.3691    0.4523 H     1     UNL1    0.0273
     44 H1          0.5304   -0.6009    0.3149 H     1     UNL1    0.0380
     45 H2         -0.5084   -0.1534   -1.0823 H     1     UNL1    0.0380
     46 H1         -6.6575    0.3698   -1.5368 H     1     UNL1    0.0642
     47 H2         -6.0377    0.4612   -3.2226 H     1     UNL1    0.0642
     48 H          -5.6843    4.3023   -0.9135 H     1     UNL1    0.0624
     49 H          -5.2862    6.7453   -0.5825 H     1     UNL1    0.0618
     50 H          -4.2067    8.0970   -2.3849 H     1     UNL1    0.0618
     51 H          -3.5191    7.0103   -4.5275 H     1     UNL1    0.0624
     52 H          -3.3518    5.0414   -5.9180 H     1     UNL1    0.0624
     53 H          -3.7412    2.5995   -6.2697 H     1     UNL1    0.0619
     54 H          -4.8187    1.2318   -4.4852 H     1     UNL1    0.0643
     55 H          -3.5078   -0.6131    1.9489 H     1     UNL1    0.0634
     56 H          -4.6930   -0.1221    4.0853 H     1     UNL1    0.0644
     57 H1         -7.3786    0.4393    6.4467 H     1     UNL1    0.0529
     58 H2         -5.7738    0.1711    5.6806 H     1     UNL1    0.0529
     59 H3         -7.1824   -0.7973    5.1800 H     1     UNL1    0.0529
     60 H          -7.9728    1.6262    1.8611 H     1     UNL1    0.0644
     61 H          -6.7862    1.1351   -0.2750 H     1     UNL1    0.0634
@<TRIPOS>BOND
     1     1     2    1 
     2     1    33    1 
     3     1    34    1 
     4     1    35    1 
     5     2     3    1 
     6     2    36    1 
     7     2    37    1 
     8     3     4    1 
     9     3    38    1 
    10     3    39    1 
    11     4     5    1 
    12     4    40    1 
    13     4    41    1 
    14     5     6    1 
    15     5    42    1 
    16     5    43    1 
    17     6     7    1 
    18     6    44    1 
    19     6    45    1 
    20     7     8    1 
    21     8     9    ar
    22     8    24    ar
    23     9    10    ar
    24    10    11    ar
    25    11    12    1 
    26    11    24    ar
    27    12    13    1 
    28    12    46    1 
    29    12    47    1 
    30    13    14    1 
    31    14    15    ar
    32    14    23    ar
    33    15    16    ar
    34    15    20    ar
    35    16    17    ar
    36    16    48    1 
    37    17    18    ar
    38    17    49    1 
    39    18    19    ar
    40    18    50    1 
    41    19    20    ar
    42    19    51    1 
    43    20    21    ar
    44    21    22    ar
    45    21    52    1 
    46    22    23    ar
    47    22    53    1 
    48    23    54    1 
    49    24    25    1 
    50    25    26    ar
    51    25    32    ar
    52    26    27    ar
    53    26    55    1 
    54    27    28    ar
    55    27    56    1 
    56    28    29    1 
    57    28    31    ar
    58    29    30    1 
    59    30    57    1 
    60    30    58    1 
    61    30    59    1 
    62    31    32    ar
    63    31    60    1 
    64    32    61    1 