@<TRIPOS>MOLECULE
Molecule abc_2.mol2
    16     0
SMALL
NO_CHARGES
@<TRIPOS>ATOM
      1 ACC        -1.7901   -1.3959    0.5278 HB    0     HB      0.0000
      2 ACC        -2.6182   -0.9046   -2.0620 HB    1     HB      0.0000
      3 ACC        -3.6271   -0.3559   -2.7201 HB    2     HB      0.0000
      4 ACC        -5.6512    2.1386   -2.0987 HB    3     HB      0.0000
      5 ACC        -7.0462    1.0435    4.3256 HB    4     HB      0.0000
      6 CAT        -4.3793   -0.0573   -0.5426 CHG   5     CHG    -0.1747
      7 AR         -3.5598   -0.4563   -1.5758 AR    6     AR      0.0000
      8 AR         -4.4350    3.6731   -4.1192 AR    7     AR      0.0000
      9 AR         -4.6017    5.6503   -2.7244 AR    8     AR      0.0000
     10 AR         -5.7394    0.5048    1.9036 AR    9     AR      0.0000
     11 HYD        -0.6059    1.1733    1.3328 HYD   10    HYD     0.0000
     12 HYD        -0.6089    1.8832    2.3470 HYD   11    HYD     0.0000
     13 HYD        -0.6153    2.6057    3.3625 HYD   12    HYD     0.0000
     14 HYD         0.2723    2.6626    4.2360 HYD   13    HYD     0.0000
     15 HYD         1.0195    2.6902    4.3641 HYD   14    HYD     0.0000
     16 HYD        -6.8685    0.2304    5.4775 HYD   15    HYD     0.0000
@<TRIPOS>BOND