@<TRIPOS>MOLECULE
abc_3.mol2
    46    48
SMALL
NO_CHARGES
@<TRIPOS>ATOM
      1 C           6.6825   -0.7917   -0.1492 C.3   1     UNL1    0.0431
      2 O           5.2831   -0.6068    0.0154 O.3   1     UNL1   -0.3463
      3 C           4.7039    0.6496    0.2278 C.ar  1     UNL1    0.0940
      4 C           3.3099    0.7484    0.3785 C.ar  1     UNL1    0.0537
      5 N           2.5129   -0.4440    0.3099 N.am  1     UNL1   -0.2251
      6 C           1.0875   -0.5336    0.4318 C.2   1     UNL1    0.2195
      7 O           0.3808    0.4923    0.6176 O.2   1     UNL1   -0.2778
      8 C           0.4262   -1.8636    0.3073 C.3   1     UNL1    0.0799
      9 N           0.2894   -2.2313   -1.0965 N.am  1     UNL1   -0.2335
     10 C           1.3801   -2.9782   -1.7045 C.3   1     UNL1   -0.0046
     11 C          -0.8099   -1.7804   -1.9122 C.2   1     UNL1    0.2555
     12 O          -0.7391   -1.9017   -3.1658 O.2   1     UNL1   -0.2720
     13 C          -2.0317   -1.1848   -1.3331 C.ar  1     UNL1    0.1582
     14 N          -2.3173   -1.1143   -0.0211 N.ar  1     UNL1   -0.1651
     15 N          -3.4995   -0.5267    0.0560 N.ar  1     UNL1   -0.0571
     16 N          -3.9850   -0.2243   -1.1386 N.ar  1     UNL1   -0.1771
     17 C          -3.0783   -0.6310   -2.0490 C.ar  1     UNL1    0.0759
     18 C          -4.1744   -0.2472    1.2899 C.ar  1     UNL1    0.0641
     19 C          -5.4300    0.3787    1.2857 C.ar  1     UNL1   -0.0400
     20 C          -6.0866    0.6530    2.4891 C.ar  1     UNL1   -0.0602
     21 C          -5.4926    0.3035    3.7048 C.ar  1     UNL1   -0.0617
     22 C          -4.2420   -0.3203    3.7179 C.ar  1     UNL1   -0.0602
     23 C          -3.5849   -0.5945    2.5148 C.ar  1     UNL1   -0.0400
     24 C           2.7270    2.0073    0.5907 C.ar  1     UNL1   -0.0227
     25 C           3.5184    3.1558    0.6534 C.ar  1     UNL1    0.0426
     26 CL          2.7743    4.7172    0.9200 Cl    1     UNL1   -0.0835
     27 C           4.9022    3.0578    0.5040 C.ar  1     UNL1   -0.0409
     28 C           5.4930    1.8107    0.2922 C.ar  1     UNL1   -0.0288
     29 H1          7.1439   -1.7926   -0.3184 H     1     UNL1    0.0529
     30 H2          7.1866   -0.3358    0.7347 H     1     UNL1    0.0529
     31 H3          6.9741   -0.1668   -1.0254 H     1     UNL1    0.0529
     32 H           3.0138   -1.3195    0.1585 H     1     UNL1    0.1364
     33 H1         -0.5517   -1.8934    0.8421 H     1     UNL1    0.0523
     34 H2          1.0941   -2.6163    0.7875 H     1     UNL1    0.0523
     35 H1          1.2755   -3.2595   -2.7784 H     1     UNL1    0.0396
     36 H2          1.5810   -3.8942   -1.1013 H     1     UNL1    0.0396
     37 H3          2.2895   -2.3377   -1.6278 H     1     UNL1    0.0396
     38 H          -3.1552   -0.5405   -3.1456 H     1     UNL1    0.0867
     39 H          -5.9016    0.6558    0.3279 H     1     UNL1    0.0634
     40 H          -7.0736    1.1453    2.4790 H     1     UNL1    0.0618
     41 H          -6.0108    0.5200    4.6541 H     1     UNL1    0.0618
     42 H          -3.7734   -0.5963    4.6775 H     1     UNL1    0.0618
     43 H          -2.5978   -1.0865    2.5286 H     1     UNL1    0.0634
     44 H           1.6335    2.0901    0.7090 H     1     UNL1    0.0649
     45 H           5.5285    3.9644    0.5532 H     1     UNL1    0.0633
     46 H           6.5872    1.7362    0.1745 H     1     UNL1    0.0644
@<TRIPOS>BOND
     1     1     2    1 
     2     1    29    1 
     3     1    30    1 
     4     1    31    1 
     5     2     3    1 
     6     3     4    ar
     7     3    28    ar
     8     4     5    1 
     9     4    24    ar
    10     5     6    am
    11     5    32    1 
    12     6     7    2 
    13     6     8    1 
    14     8     9    1 
    15     8    33    1 
    16     8    34    1 
    17     9    10    1 
    18     9    11    am
    19    10    35    1 
    20    10    36    1 
    21    10    37    1 
    22    11    12    2 
    23    11    13    1 
    24    13    14    ar
    25    13    17    ar
    26    14    15    ar
    27    15    16    ar
    28    15    18    1 
    29    16    17    ar
    30    17    38    1 
    31    18    19    ar
    32    18    23    ar
    33    19    20    ar
    34    19    39    1 
    35    20    21    ar
    36    20    40    1 
    37    21    22    ar
    38    21    41    1 
    39    22    23    ar
    40    22    42    1 
    41    23    43    1 
    42    24    25    ar
    43    24    44    1 
    44    25    26    1 
    45    25    27    ar
    46    27    28    ar
    47    27    45    1 
    48    28    46    1 