@<TRIPOS>MOLECULE
Molecule abc_3.mol2
    12     0
SMALL
NO_CHARGES
@<TRIPOS>ATOM
      1 DON         2.5129   -0.4440    0.3099 HB    0     HB      0.0000
      2 ACC         5.2831   -0.6068    0.0154 HB    1     HB      0.0000
      3 ACC         0.3808    0.4923    0.6176 HB    2     HB      0.0000
      4 ACC        -0.7391   -1.9017   -3.1658 HB    3     HB      0.0000
      5 ACC        -2.3173   -1.1143   -0.0211 HB    4     HB      0.0000
      6 ACC        -3.9850   -0.2243   -1.1386 HB    5     HB      0.0000
      7 CAT        -3.4995   -0.5267    0.0560 CHG   6     CHG    -0.0571
      8 AR          4.1091    1.9049    0.4411 AR    7     AR      0.0000
      9 AR         -2.9824   -0.7362   -0.8972 AR    8     AR      0.0000
     10 AR         -4.8351    0.0289    2.5004 AR    9     AR      0.0000
     11 HYD         6.6825   -0.7917   -0.1492 HYD   10    HYD     0.0000
     12 HYD         1.3801   -2.9782   -1.7045 HYD   11    HYD     0.0000
@<TRIPOS>BOND